# This is an example PKGBUILD file. Use this as a start to creating your own,
# and remove these comments. For more information, see 'man PKGBUILD'.
# NOTE: Please fill out the license field for your package! If it is unknown,
# then please put 'unknown'.

# Maintainer: Your Name <ulf@winkelvos.de>
pkgname=nvidiabl
pkgver=0.69
pkgrel=5
epoch=
pkgdesc="Driver to adjust display backlight on modern mobile NVidia graphics adapters."
arch=('x86_64' 'i686')
url="https://github.com/guillaumezin/nvidiabl"
license=('GPL')
depends=()
makedepends=("kernel26-headers")
optdepends=()
conflicts=(nvidia-bl)
options=()
install=nvidiabl.install
changelog=
source=(https://github.com/downloads/guillaumezin/nvidiabl/$pkgname-$pkgver-source-only.dkms.tar.gz probs-type.patch)

build() {
  cd "$srcdir/dkms_source_tree/"
  patch -p1 -i "$srcdir/probs-type.patch"
  make
}

package() {
  cd "$srcdir/dkms_source_tree/"
  MODPATH="$pkgdir/lib/modules/$(uname -r)/kernel/drivers/video/backlight/" 
  install -d $MODPATH
  install -m 644 -c nvidiabl.ko $MODPATH
}

# vim:set ts=2 sw=2 et:
md5sums=('4dbe27b91a5479d90210fde0ad5fb375'
         'fe042aff39058ba65bbb249f941b5572')
