# This is an example PKGBUILD file. Use this as a start to creating your own,
# and remove these comments. For more information, see 'man PKGBUILD'.
# NOTE: Please fill out the license field for your package! If it is unknown,
# then please put 'unknown'.


# Maintainer: Your Name <ulf@winkelvos.de>
pkgname=nvidiabl
pkgver=0.76
pkgrel=2
epoch=
pkgdesc="Driver to adjust display backlight on modern mobile NVidia graphics adapters."
arch=('x86_64' 'i686')
url="https://github.com/guillaumezin/nvidiabl"
license=('GPL')
depends=()
makedepends=("linux-headers")
optdepends=()
conflicts=(nvidia-bl)
options=()
install=nvidiabl.install
changelog=
source=(https://github.com/downloads/guillaumezin/nvidiabl/$pkgname-$pkgver-source-only.dkms.tar.gz)

_extramodules="extramodules-$(uname -r | cut -f-2 -d'.')-ARCH"

build() {
  cd "$srcdir/dkms_source_tree/"
  make
}
  
package() {
  cd "$srcdir/dkms_source_tree/"
  MODPATH="${pkgdir}/usr/lib/modules/${_extramodules}/"
  install -d $MODPATH
  install -m 644 -c nvidiabl.ko $MODPATH
}

# vim:set ts=2 sw=2 et:
md5sums=('7ad7cd796102b1bf86e1f1e306089cd6')
