# Maintainer: Hasan Gormus aka hsngrms <hsngrms at yandex dot com>
# Contributor: uwinkelvos <uwinkelvos at gmx dot de>
pkgname=nvidiabl
pkgver=0.80
pkgrel=3
pkgdesc="Driver to adjust display backlight on modern mobile NVidia graphics adapters."
arch=('x86_64' 'i686')
url="https://github.com/guillaumezin/nvidiabl"
license=('GPL')
depends=()
makedepends=('linux-headers')
optdepends=('nvidiablctl: adjust backlight easily')
conflicts=(nvidia-bl)
install=nvidiabl.install
source=(https://github.com/downloads/guillaumezin/nvidiabl/$pkgname-$pkgver-source-only.dkms.tar.gz)
md5sums=('b72bd04dc1630fa094ab044398abc6aa')

_extramodules="extramodules-$(uname -r | cut -f-2 -d'.')-ARCH"
MODPATH="${pkgdir}/usr/lib/modules/${_extramodules}/"

build() {
  cd "$srcdir/dkms_source_tree/"
  make
}

package() {
  cd "$srcdir/dkms_source_tree/"
  install -d $MODPATH
  install -m 644 -c nvidiabl.ko $MODPATH
}
