pkgbase = modflow2005
	pkgdesc = USGS finite-difference ground water flow model
	pkgver = 1.11
	pkgrel = 1
	url = http://water.usgs.gov/ogw/modflow/MODFLOW.html
	arch = i686
	arch = x86_64
	license = none
	makedepends = gcc-fortran
	provides = mf2005
	source = http://water.usgs.gov/ogw/modflow/MODFLOW-2005_v1.11.00/mf2005v1_11_00_unix.zip
	sha256sums = d797abe71aebf83cb874b7610ca545efc4e6a7822ddaeabd35543c1ad022b69c

pkgname = modflow2005

